64
E(M06-2X)=-1506.317908156
C 5.387564215 1.589313466 -0.040711351 
C 4.301954391 0.704118885 -0.284021145 
C 4.359678066 -0.067501096 -1.478268406 
C 5.426086940 0.057648973 -2.378842410 
C 6.485463635 0.947820518 -2.120031174 
C 6.457636391 1.709917632 -0.938783449 
C 3.210453582 0.628674464 0.688260235 
C 2.025054228 -0.041473557 0.516468702 
N 1.023283528 -0.161532276 1.446835783 
C -0.180698456 -0.967368535 1.235090750 
C -0.549407473 -1.421963962 2.670079988 
C 0.020917375 -0.330932945 3.601504618 
C 1.245276410 0.213146276 2.844171685 
C -1.324375971 -0.207397727 0.430739354 
C -2.548225931 -1.114192881 0.167837068 
C -3.739735271 -0.521598602 -0.312103279 
C -4.867034892 -1.295669044 -0.625456414 
C -4.831510218 -2.692541410 -0.468769781 
C -3.656037141 -3.299595451 -0.000611463 
C -2.528256844 -2.518710278 0.313233470 
O -0.744485587 0.199047243 -0.811162304 
SI -0.646853976 -0.390318408 -2.410316043 
C 0.589397365 0.790351303 -3.212101410 
C -2.290839757 -0.279412450 -3.344732954 
C -0.011200777 -2.178364679 -2.472012306 
C -1.721460164 1.074703518 1.187227121 
C -1.007654578 2.268226459 0.949121020 
C -1.300976068 3.437846866 1.670999735 
C -2.316398969 3.437574175 2.642561819 
C -3.038620615 2.256335947 2.883494360 
C -2.742920896 1.086875328 2.162061925 
H 0.093321715 -1.836715252 0.596946541 
H -1.640009066 -1.570063007 2.808856752 
H -0.057207043 -2.399006453 2.872379360 
H -0.725328453 0.473089301 3.760758802 
H 0.296786035 -0.734344144 4.598409543 
H 1.351526026 1.316934861 2.954865752 
H 2.203472974 -0.244429400 3.195574606 
H -2.103007663 -0.456500050 -4.429135150 
H -2.744351438 0.731804615 -3.243638617 
H -3.036600565 -1.027120242 -3.000317138 
H -0.720485762 -2.884180580 -1.986504550 
H 0.980826598 -2.291145735 -1.980169943 
H 0.106192570 -2.499255757 -3.532642261 
H 0.206743626 1.835027563 -3.186077916 
H 1.576434911 0.782068390 -2.699730155 
H 0.755809318 0.517680747 -4.279025027 
H -0.222836825 2.270784190 0.178845785 
H -0.731603718 4.360132652 1.466669493 
H -2.550291449 4.356828685 3.205110189 
H -3.845665780 2.243168627 3.635156992 
H -3.327842886 0.173853740 2.357545233 
H -3.780110374 0.571502211 -0.441854803 
H -5.781588515 -0.802929892 -0.995643357 
H -5.716548931 -3.304157735 -0.710247553 
H -3.610596029 -4.393823429 0.127877705 
H -1.628230614 -3.033984344 0.680764257 
H 1.810168690 -0.554193355 -0.434150379 
H 3.370863848 1.193351784 1.622592209 
H 3.562836601 -0.796871330 -1.700035672 
H 5.436205873 -0.558295519 -3.294323694 
H 7.325827827 1.039611431 -2.827574247 
H 7.280542925 2.409338353 -0.712749146 
H 5.378573032 2.198811323 0.879602646 
